reduced_networks/ieee8500/31pct/dss/Branches.dss
! Radial Kron-equivalent series elements
new Reactor.kr_1_1681 phases=3 bus1=sourcebus.1.2.3 bus2=hvmv_sub_hsb.1.2.3 rmatrix=[0 | 0 0 | 0 0 0] xmatrix=[14.79830663359505 | -0 14.79830663359505 | -0 -0 14.79830663359505]
new Reactor.kr_2_572 phases=3 bus1=_hvmv_sub_lsb.1.2.3 bus2=d5710794-3_int.1.2.3 rmatrix=[0.004163460770154475 | 0.001084447345436711 0.004123986176976444 | 0.001111033901816856 0.001090151822589795 0.004175880398436444] xmatrix=[0.01235104838036289 | 0.005342383765059878 0.01268958529024682 | 0.00479152757606391 0.005654332174959866 0.01224584110666893]
new Reactor.kr_3_4 phases=1 bus1=m1009763.2 bus2=l2673322.2 rmatrix=[0.05388321206658001] xmatrix=[0.03007004088528]
new Reactor.kr_3_1221 phases=3 bus1=m1009763.1.2.3 bus2=l2689691.1.2.3 rmatrix=[0.1400294019826 | 0.01150613460843602 0.13948538850454 | 0.01186756252314104 0.011586821622766 0.14019826243527] xmatrix=[0.07713512204969997 | 0.03598665793864699 0.07758663659999201 | 0.034292230637717 0.03747113263734099 0.076996789570493]
new Reactor.kr_3_1505 phases=1 bus1=m1009763.2 bus2=l2766730.2 rmatrix=[0.04168983509262] xmatrix=[0.02326541046192]
new Reactor.kr_4_1562 phases=1 bus1=l2673322.2 bus2=l2859391.2 rmatrix=[0.05541731098199999] xmatrix=[0.04426101573409999]
new Reactor.kr_5_6 phases=1 bus1=m1069148.3 bus2=l2673309.3 rmatrix=[0.1795806244127999] xmatrix=[0.1002166818048]
new Reactor.kr_5_449 phases=1 bus1=m1069148.3 bus2=l2724120.3 rmatrix=[0.1122262060761502] xmatrix=[0.06262890575163632]
new Reactor.kr_5_1118 phases=1 bus1=m1069148.3 bus2=l2785518.3 rmatrix=[0.04609063558943999] xmatrix=[0.02572131919104]
new Reactor.kr_7_8 phases=1 bus1=m1069588.2 bus2=l2804270.2 rmatrix=[0.01916872941906] xmatrix=[0.01069729244496]
new Reactor.kr_7_458 phases=1 bus1=m1069588.2 bus2=m1069590.2 rmatrix=[0.1849475077943999] xmatrix=[0.1032117223103999]
new Reactor.kr_7_1591 phases=1 bus1=m1069588.2 bus2=l3082983.2 rmatrix=[0.03870573164405999] xmatrix=[0.02160010304495999]
new Reactor.kr_8_1105 phases=1 bus1=l2804270.2 bus2=l3104145.2 rmatrix=[0.14888837029716] xmatrix=[0.08308857639455998]
new Reactor.kr_9_10 phases=1 bus1=m3036164.2 bus2=l2935553.2 rmatrix=[0.07996775139444] xmatrix=[0.04462676707103999]
new Reactor.kr_9_565 phases=1 bus1=m3036164.2 bus2=l3048207.2 rmatrix=[0.004892417035740001] xmatrix=[0.002730260031839998]
new Reactor.kr_9_993 phases=1 bus1=m3036164.2 bus2=l3085397.2 rmatrix=[0.2827272711822001] xmatrix=[0.1577786527152001]
new Reactor.kr_10_271 phases=1 bus1=l2935553.2 bus2=m1026987.2 rmatrix=[0.2197593123345001] xmatrix=[0.12216929113665]
new Reactor.kr_11_723 phases=1 bus1=l2748840.2 bus2=m1209750.2 rmatrix=[0.2375990468938195] xmatrix=[0.189766970247421]
new Reactor.kr_12_13 phases=3 bus1=l3085398.1.2.3 bus2=m1026891.1.2.3 rmatrix=[0.1442813488532 | 0.01185551461255202 0.14372081658428 | 0.012227917167362 0.01193865166161199 0.14445533669814] xmatrix=[0.07947730473539996 | 0.03707938100565399 0.07994252937694399 | 0.03533350297539399 0.03860893129176201 0.079334771835826]
new Reactor.kr_12_644 phases=3 bus1=l3085398.1.2.3 bus2=m1026907.1.2.3 rmatrix=[0.09441200087440003 | 0.007757779261584009 0.09404521075576 | 0.008001464745603997 0.007812180854104006 0.09452585162988] xmatrix=[0.05200680076680003 | 0.024263278516268 0.052311225348448 | 0.02312084507334799 0.02526415565040399 0.05191353288189199]
new Reactor.kr_13_264 phases=1 bus1=m1026891.3 bus2=l3122817.3 rmatrix=[0.0231575886736411] xmatrix=[0.01292331343379956]
new Reactor.kr_13_1093 phases=3 bus1=m1026891.1.2.3 bus2=l3160102.1.2.3 rmatrix=[0.1469153210648 | 0.01207194657892798 0.14634455582792 | 0.01245114764226799 0.01215660136176797 0.14709248519796] xmatrix=[0.08092822693560002 | 0.03775629496555601 0.08140194462761606 | 0.03597854452591601 0.03931376842386802 0.08078309198316405]
new Reactor.kr_14_15 phases=3 bus1=l3216367.1.2.3 bus2=m1069468.1.2.3 rmatrix=[0.02732487293340001 | 0.005685146403180002 0.02704077893317999 | 0.00587397733012 0.005727278812760001 0.02741323108773998] xmatrix=[0.03596954201854 | 0.01606650596878 0.03632433908095999 | 0.0151376910043 0.01678486561946 0.03586009698599999]
new Reactor.kr_14_220 phases=3 bus1=l3216367.1.2.3 bus2=l2991939.1.2.3 rmatrix=[0.06196020323283002 | 0.01289128873199102 0.061316009130491 | 0.01331947014159402 0.01298682559566202 0.06216055875556301] xmatrix=[0.08156232378802304 | 0.03643142193171105 0.08236683981075202 | 0.03432529817753504 0.03806033014507704 0.08131415295570003]
new Reactor.kr_15_21 phases=3 bus1=m1069468.1.2.3 bus2=m1069464.1.2.3 rmatrix=[0.04832446723587003 | 0.01005427076499902 0.04782204253149899 | 0.010388221227066 0.01012878259351802 0.04848073002050697] xmatrix=[0.06361270037744701 | 0.02841386831607901 0.06424016455852798 | 0.026771244453615 0.02968429864845301 0.06341914511729997]
new Reactor.kr_15_80 phases=1 bus1=m1069468.1 bus2=m1069469.1 rmatrix=[0.02606494747703462] xmatrix=[0.01454579277047022]
new Reactor.kr_16_356 phases=3 bus1=m1047592.1.2.3 bus2=m3763619.1.2.3 rmatrix=[0.02649512883969 | 0.005512511871212994 0.02621966160671299 | 0.005695608778941993 0.005553364892665997 0.02658080392000899] xmatrix=[0.03487729485178899 | 0.01557863221117299 0.035221318185536 | 0.01467802154000499 0.016275178231511 0.03477117321509997]
new Reactor.kr_16_602 phases=3 bus1=m1047592.1.2.3 bus2=l3103822.1.2.3 rmatrix=[0.1454463937469558 | 0.03026122156728503 0.1439342019857712 | 0.03126634159002423 0.03048548639676929 0.145916711592689] xmatrix=[0.1914607359245369 | 0.08551971626706036 0.1933492699940415 | 0.08057576695551624 0.08934344204742604 0.1908781756876369]
new Reactor.kr_16_1644 phases=1 bus1=m1047592.3 bus2=l2785521.3 rmatrix=[0.09840071374538241] xmatrix=[0.05491345788313427]
new Reactor.kr_17_443 phases=1 bus1=m1047339.1 bus2=l3122826.1 rmatrix=[0.2065657503471335] xmatrix=[0.1090787800884463]
new Reactor.kr_17_862 phases=3 bus1=m1047339.1.2.3 bus2=l2860491.1.2.3 rmatrix=[0.1395165524892 | 0.01146399406351204 0.1389745314286799 | 0.01182409826962201 0.01154438556637204 0.13968479450034] xmatrix=[0.07685261917739997 | 0.035854858909074 0.07730248008206395 | 0.03416663734901399 0.037333896806022 0.07671479333280597]
new Reactor.kr_17_1104 phases=3 bus1=m1047339.1.2.3 bus2=l2991922.1.2.3 rmatrix=[0.11842027984072 | 0.00998808943267201 0.11794731791232 | 0.010301832879832 0.01005813112283201 0.11856686193456] xmatrix=[0.064389181348232 | 0.031238810435144 0.06478105377348801 | 0.029767934941784 0.03252743311823201 0.06426909956396797]
new Reactor.kr_18_19 phases=3 bus1=m1026915.1.2.3 bus2=m1026920.1.2.3 rmatrix=[0.06887790340300015 | 0.005762549580900119 0.04608471157199993 | 0.005945868897300111 0.005803477823999943 0.04644661200499994] xmatrix=[0.03778166996730004 | 0.01757868041145006 0.03814107876074996 | 0.01674291915190006 0.01830681101174996 0.03784412434224996]
new Reactor.kr_18_644 phases=3 bus1=m1026915.1.2.3 bus2=m1026907.1.2.3 rmatrix=[0.1248228603649602 | 0.01044308676868817 0.08351626912703987 | 0.01077530421873615 0.01051725831167988 0.08417211730159989] xmatrix=[0.06846921700113606 | 0.03185667771506406 0.06912054974243988 | 0.03034208296340805 0.0331762205547599 0.06858239892651991]
new Reactor.kr_18_1585 phases=1 bus1=m1026915.2 bus2=l3197634.2 rmatrix=[0.01554525899617612] xmatrix=[0.01241577660286975]
new Reactor.kr_19_605 phases=3 bus1=m1026920.1.2.3 bus2=m1026926.1.2.3 rmatrix=[0.1583756773776804 | 0.01325022464690421 0.1059657314083198 | 0.01367174329768822 0.01334433375743987 0.1067978738427998] xmatrix=[0.0868739795768881 | 0.04041986297521211 0.08770039281401992 | 0.03849813991066411 0.04209410349857991 0.08701758519565995]
new Reactor.kr_19_1023 phases=1 bus1=m1026920.2 bus2=l2729408.2 rmatrix=[0.02720066996429999] xmatrix=[0.02172478707346499]
new Reactor.kr_20_329 phases=1 bus1=l3254207.1 bus2=e182722.1 rmatrix=[0.06338233904791228] xmatrix=[0.03537111943409463]
new Reactor.kr_20_1015 phases=1 bus1=l3254207.1 bus2=m1069390.1 rmatrix=[0.11871620696442] xmatrix=[0.06625071261071999]
new Reactor.kr_21_713 phases=3 bus1=m1069464.1.2.3 bus2=m1069461.1.2.3 rmatrix=[0.05309189882451001 | 0.011046170951127 0.052539907605627 | 0.011413067166618 0.01112803371521398 0.05326357765361102] xmatrix=[0.06988838668223102 | 0.03121702748396699 0.07057775309894397 | 0.02941235120089499 0.03261279162846898 0.06967573630289997]
new Reactor.kr_21_750 phases=1 bus1=m1069464.2 bus2=l3216342.2 rmatrix=[0.05990007898094674] xmatrix=[0.04784133868889769]
new Reactor.kr_22_23 phases=1 bus1=l2729406.3 bus2=l2897768.3 rmatrix=[0.3261778990626] xmatrix=[0.1820266904016]
new Reactor.kr_22_303 phases=1 bus1=l2729406.3 bus2=m1089177.3 rmatrix=[0.2306675679204] xmatrix=[0.1287262383264]
new Reactor.kr_24_25 phases=1 bus1=l3649301.1 bus2=l3649302.1 rmatrix=[0.07077279578309997] xmatrix=[0.05652522239340497]
new Reactor.kr_24_385 phases=1 bus1=l3649301.1 bus2=l3649300.1 rmatrix=[0.06865623001170001] xmatrix=[0.054834751505335]
new Reactor.kr_25_690 phases=1 bus1=l3649302.1 bus2=l3649304.1 rmatrix=[0.07043621127929998] xmatrix=[0.05625639715171499]
new Reactor.kr_26_666 phases=1 bus1=m1089113.2 bus2=m1089119.2 rmatrix=[0.2903832186315668] xmatrix=[0.1620511334342959]
new Reactor.kr_26_702 phases=1 bus1=m1089113.2 bus2=m1089103.2 rmatrix=[0.7387511725931999] xmatrix=[0.4122671442912001]
new Reactor.kr_26_1348 phases=1 bus1=m1089113.2 bus2=l2691946.2 rmatrix=[0.08530995890610001] xmatrix=[0.06813584720205498]
new Reactor.kr_27_462 phases=1 bus1=m1047312.1 bus2=m1047314.1 rmatrix=[0.01316530249846092] xmatrix=[0.007255419481896994]
new Reactor.kr_27_791 phases=3 bus1=m1047312.1.2.3 bus2=l3216370.1.2.3 rmatrix=[0.170111004869 | 0.01423204034070002 0.169429051675 | 0.01468479269790001 0.01433312275199992 0.170322854234] xmatrix=[0.09331117130789997 | 0.04341489565334999 0.09387257212514998 | 0.04135077667369997 0.04521319412025 0.09313916979964998]
new Reactor.kr_27_1305 phases=3 bus1=m1047312.1.2.3 bus2=d6049825-1_int.1.2.3 rmatrix=[0.07570032241776606 | 0.006333335351038148 0.07539684953792972 | 0.00653481261208907 0.006378317574445232 0.07579459653789045] xmatrix=[0.04152397887165629 | 0.01931986469798836 0.0417738052906551 | 0.01840132052866417 0.02012011729397343 0.04144743726679855]
new Reactor.kr_28_797 phases=3 bus1=l2822871.1.2.3 bus2=d5502543-2_int.1.2.3 rmatrix=[0.1000268295055968 | 0.02081133803724249 0.09898686045746634 | 0.02150258219565307 0.02096557010458832 0.100350277896627] xmatrix=[0.1316719492135674 | 0.05881387502373152 0.1329707375165514 | 0.05541380739222664 0.06144353916256528 0.1312713091311127]
new Reactor.kr_28_920 phases=3 bus1=l2822871.1.2.3 bus2=m1026851.1.2.3 rmatrix=[0.09286597116651588 | 0.01932146736101047 0.09190045285354229 | 0.01996322578311626 0.01946465804691793 0.0931662640870049] xmatrix=[0.1222456360312345 | 0.05460342627864306 0.1234514448886404 | 0.05144676736698545 0.05704483439986146 0.1218736775188529]
new Reactor.kr_29_359 phases=1 bus1=l2973163.2 bus2=l2763072.2 rmatrix=[0.4388936835542715] xmatrix=[0.2442518916134193]
new Reactor.kr_29_1203 phases=1 bus1=l2973163.2 bus2=m1026309.2 rmatrix=[0.1438242034811399] xmatrix=[0.08026246975823995]
new Reactor.kr_30_31 phases=1 bus1=l3728038.1 bus2=l3728039.1 rmatrix=[0.0887838230745] xmatrix=[0.070910372957475]
new Reactor.kr_30_1134 phases=1 bus1=l3728038.1 bus2=m3949154.1 rmatrix=[0.004249622619000001] xmatrix=[0.00339411296345]
new Reactor.kr_31_1050 phases=1 bus1=l3728039.1 bus2=l3728040.1 rmatrix=[0.0677281945302] xmatrix=[0.05409354280501]
new Reactor.kr_32_33 phases=1 bus1=m1069567.2 bus2=m1069582.2 rmatrix=[0.256148290164] xmatrix=[0.142945998624]
new Reactor.kr_32_131 phases=1 bus1=m1069567.2 bus2=m1069560.2 rmatrix=[0.13636457955588] xmatrix=[0.07609955541408001]
new Reactor.kr_32_1592 phases=1 bus1=m1069567.2 bus2=l2691966.2 rmatrix=[0.13740058786896] xmatrix=[0.07667770974336001]
new Reactor.kr_33_670 phases=1 bus1=m1069582.2 bus2=l2973171.2 rmatrix=[0.02943283936950001] xmatrix=[0.023507588934725]
new Reactor.kr_33_852 phases=1 bus1=m1069582.2 bus2=l3235273.2 rmatrix=[0.3203963557182075] xmatrix=[0.178800251729052]
new Reactor.kr_33_895 phases=1 bus1=m1069582.2 bus2=d6231996-1_int.2 rmatrix=[0.04133238561426002] xmatrix=[0.02306593236816]
new Reactor.kr_34_732 phases=1 bus1=l3216351.1 bus2=m1026690.1 rmatrix=[0.03433174244597878] xmatrix=[0.0191591566262898]
new Reactor.kr_34_773 phases=1 bus1=l3216351.1 bus2=l2879081.1 rmatrix=[0.05308296573761998] xmatrix=[0.02962345578191999]
new Reactor.kr_35_36 phases=1 bus1=l2952007.3 bus2=l2861158.3 rmatrix=[0.2119223281968] xmatrix=[0.1182652783487999]
new Reactor.kr_35_1506 phases=1 bus1=l2952007.3 bus2=m1166407.3 rmatrix=[0.2520291624552] xmatrix=[0.1406472800831999]
new Reactor.kr_37_683 phases=1 bus1=m1026726.2 bus2=l2916610.2 rmatrix=[0.1103804947347] xmatrix=[0.06133734784590099]
new Reactor.kr_37_772 phases=3 bus1=m1026726.1.2.3 bus2=l3216368.1.2.3 rmatrix=[0.07569544447754496 | 0.006219850686888469 0.07540136808110677 | 0.006415227130702557 0.00626346752307249 0.07578672507214253] xmatrix=[0.04169679567137163 | 0.01945324359456826 0.04194087008948243 | 0.01853729004902193 0.02025570343636978 0.04162201753109474]
new Reactor.kr_37_1214 phases=3 bus1=m1026726.1.2.3 bus2=l2814529.1.2.3 rmatrix=[0.0447801438142803 | 0.005441744435889287 0.04450825249670985 | 0.005622490818326288 0.005482073002497853 0.04486483776181984] xmatrix=[0.03502078900134615 | 0.01537863992576916 0.03536039590033693 | 0.01448959093626516 0.01606624396528293 0.03491602971202892]
new Reactor.kr_38_969 phases=3 bus1=l2730106.1.2.3 bus2=m1108490.1.2.3 rmatrix=[0.01904623942561494 | 0.007755576718608307 0.01866639949064723 | 0.008008591732025663 0.007811723903261671 0.01916467048455191] xmatrix=[0.04909168413444331 | 0.02352468277789515 0.04999137928143009 | 0.02174440791840301 0.02470610136191498 0.0488128527025266]
new Reactor.kr_38_1361 phases=3 bus1=l2730106.1.2.3 bus2=m1108484.1.2.3 rmatrix=[0.02804725425679001 | 0.01142076540091 0.02748790671394 | 0.01179335214858 0.01150344704327 0.02822165435418003] xmatrix=[0.07229180070334001 | 0.03464215394909997 0.07361668053788996 | 0.03202054343210998 0.03638189619518998 0.07188119701961002]
new Reactor.kr_39_40 phases=1 bus1=m1026658.1 bus2=l3172805.1 rmatrix=[0.119727368028] xmatrix=[0.09562454089139996]
new Reactor.kr_39_945 phases=3 bus1=m1026658.1.2.3 bus2=m1026655.1.2.3 rmatrix=[0.11710218379794 | 0.009876915390744005 0.11663448624864 | 0.01018716666581401 0.009946177470564015 0.11724713433612] xmatrix=[0.06367248717011402 | 0.030891101812338 0.06405999779607599 | 0.02943659813611801 0.03216538127261401 0.063553741975536]
new Reactor.kr_39_1114 phases=3 bus1=m1026658.1.2.3 bus2=l2673319.1.2.3 rmatrix=[0.05459021593080003 | 0.00460437992207999 0.05437218660479998 | 0.004749011589479995 0.004636668234479993 0.05465778837839999] xmatrix=[0.02968257901548 | 0.01440068719116 0.02986322713032 | 0.01372263263075999 0.01499472556547999 0.02962722286751999]
new Reactor.kr_41_480 phases=1 bus1=l3048962.1 bus2=m1142865.1 rmatrix=[0.03857047448698094] xmatrix=[0.03219822107518271]
new Reactor.kr_42_291 phases=3 bus1=l2991914.1.2.3 bus2=m1047507.1.2.3 rmatrix=[0.1928999662509461 | 0.01585047798665236 0.1921505509256801 | 0.01634836936106658 0.01596162981255746 0.1931325829455181] xmatrix=[0.1062588462855706 | 0.04957405365963303 0.1068808381289229 | 0.04723986558081472 0.05161901784827817 0.1060682839762086]
new Reactor.kr_42_638 phases=3 bus1=l2991914.1.2.3 bus2=l2841635.1.2.3 rmatrix=[0.1000216265000396 | 0.008218718918538015 0.09963304301739129 | 0.008476883327124632 0.008276352861621292 0.1001422418637862] xmatrix=[0.05509686031213192 | 0.02570491630034229 0.05541937272466116 | 0.02449460352911491 0.02676526199125701 0.0549980507848304]
new Reactor.kr_43_619 phases=1 bus1=l2973154.1 bus2=l2879069.1 rmatrix=[0.10732834982376] xmatrix=[0.05989561022016]
new Reactor.kr_43_818 phases=1 bus1=l2973154.1 bus2=m1047755.1 rmatrix=[0.1382778700225255] xmatrix=[0.07716728567086933]
new Reactor.kr_44_45 phases=1 bus1=l3010565.3 bus2=l2897775.3 rmatrix=[0.158048974908] xmatrix=[0.1262314616354]
new Reactor.kr_44_998 phases=1 bus1=l3010565.3 bus2=l2785524.3 rmatrix=[0.2768721371413942] xmatrix=[0.1545111414554869]
new Reactor.kr_46_169 phases=1 bus1=m1125955.3 bus2=m1125952.3 rmatrix=[0.06723313563490231] xmatrix=[0.03690534641881052]
new Reactor.kr_46_568 phases=1 bus1=m1125955.3 bus2=l2936211.3 rmatrix=[0.07300924155388445] xmatrix=[0.04007594360510066]
new Reactor.kr_46_1664 phases=1 bus1=m1125955.3 bus2=l3236004.3 rmatrix=[0.1843934643605999] xmatrix=[0.1012165297539]
new Reactor.kr_47_48 phases=1 bus1=m1069640.2 bus2=l2804269.2 rmatrix=[0.1693835359398] xmatrix=[0.09452609923680004]
new Reactor.kr_47_477 phases=1 bus1=m1069640.2 bus2=m1069629.2 rmatrix=[0.2450064589985999] xmatrix=[0.1367281933775999]
new Reactor.kr_47_1615 phases=1 bus1=m1069640.2 bus2=l3160113.2 rmatrix=[0.1056564408717] xmatrix=[0.08438629209833498]
new Reactor.kr_48_185 phases=1 bus1=l2804269.2 bus2=l2989564.2 rmatrix=[0.10395037639116] xmatrix=[0.05801049989855996]
new Reactor.kr_49_150 phases=3 bus1=m1026702.1.2.3 bus2=l2729414.1.2.3 rmatrix=[0.05645867276952037 | 0.006860935276926361 0.05611587300113986 | 0.007088819780884356 0.006911781414331822 0.05656545464787983] xmatrix=[0.04415410710956418 | 0.01938934369684618 0.0445822824825579 | 0.01826843336251018 0.02025627283452192 0.04402202690768588]
new Reactor.kr_49_535 phases=3 bus1=m1026702.1.2.3 bus2=m1026744.1.2.3 rmatrix=[0.4942772365088968 | 0.04061447051566738 0.4923569722920241 | 0.04189024238551066 0.04089928053867604 0.4948732820072117] xmatrix=[0.27227238530099 | 0.1270260770398361 0.2738661465625938 | 0.1210450709587274 0.1322659904249099 0.2717840983958014]
new Reactor.kr_49_1464 phases=3 bus1=m1026702.1.2.3 bus2=m1026695.1.2.3 rmatrix=[0.2551714026380026 | 0.02134846988301982 0.2541484532353735 | 0.0220276114390761 0.02150009641965359 0.2554891827899336] xmatrix=[0.1399694442637303 | 0.065123592735637 0.1408115616788001 | 0.06202735493286314 0.06782109213195431 0.1397114370859729]
new Reactor.kr_50_373 phases=1 bus1=l2783231.2 bus2=l3254227.2 rmatrix=[0.2482418919191999] xmatrix=[0.1362639555948]
new Reactor.kr_50_479 phases=1 bus1=l2783231.2 bus2=m1069533.2 rmatrix=[0.1655219423667907] xmatrix=[0.09085764958361195]
new Reactor.kr_51_52 phases=1 bus1=l2748143.1 bus2=l3251854.1 rmatrix=[0.07525703633940001] xmatrix=[0.06010672135647001]
new Reactor.kr_51_508 phases=1 bus1=l2748143.1 bus2=l3197652.1 rmatrix=[0.0342600873525] xmatrix=[0.027363043036375]
new Reactor.kr_53_726 phases=1 bus1=m1069610.2 bus2=l3102793.2 rmatrix=[0.133409868365067] xmatrix=[0.1065525597850499]
new Reactor.kr_53_1133 phases=1 bus1=m1069610.2 bus2=l2991929.2 rmatrix=[0.05141425430609999] xmatrix=[0.04106383147205499]
new Reactor.kr_53_1159 phases=1 bus1=m1069610.2 bus2=m1069607.2 rmatrix=[0.08178637221685024] xmatrix=[0.05101798272782804]
new Reactor.kr_54_55 phases=3 bus1=m1069424.1.2.3 bus2=l2935549.1.2.3 rmatrix=[0.05855064008534996 | 0.01218190334119498 0.05794189487369499 | 0.01258652266612998 0.01227218297599 0.058739970389135] xmatrix=[0.07707408974583499 | 0.034426663600595 0.07783433463903999 | 0.03243643620507501 0.03596593580366501 0.07683957532649999]
new Reactor.kr_54_74 phases=3 bus1=m1069424.1.2.3 bus2=m1069428.1.2.3 rmatrix=[0.05066289823517992 | 0.01054079901408594 0.05013616109508594 | 0.01089090940832396 0.01061891648545195 0.05082672260839795] xmatrix=[0.06669093215155815 | 0.02978882130120603 0.06734875945459216 | 0.02806671052911005 0.03112072802104217 0.06648801071220005]
new Reactor.kr_54_376 phases=1 bus1=m1069424.1 bus2=l2822861.1 rmatrix=[0.1263861239220403] xmatrix=[0.1009427946386602]
new Reactor.kr_55_203 phases=3 bus1=l2935549.1.2.3 bus2=m1069420.1.2.3 rmatrix=[0.06345835983585002 | 0.01320299154004501 0.062798589547545 | 0.01364152609203001 0.01330083842169 0.06366355982218504] xmatrix=[0.08353444665988502 | 0.03731230954144502 0.08435841534624003 | 0.03515526111232502 0.03898060367461503 0.08328027522149997]
new Reactor.kr_56_88 phases=1 bus1=l3235242.3 bus2=l3141393.3 rmatrix=[0.2809711960004716] xmatrix=[0.2244076959049977]
new Reactor.kr_56_909 phases=1 bus1=l3235242.3 bus2=m1089213.3 rmatrix=[0.07840228984812034] xmatrix=[0.06261879056559956]
new Reactor.kr_57_67 phases=3 bus1=m1026795.1.2.3 bus2=m1026783.1.2.3 rmatrix=[0.1810646858121649 | 0.01514846082501901 0.1803388207246388 | 0.01563036652217645 0.01525605207806848 0.1812901764532684] xmatrix=[0.09931960688611119 | 0.04621044027020749 0.09991715709267535 | 0.04401340987891856 0.04812453360883661 0.0991365299859002]
new Reactor.kr_57_938 phases=1 bus1=m1026795.3 bus2=l2822870.3 rmatrix=[0.03289499007737881] xmatrix=[0.02627275933213578]
new Reactor.kr_57_1588 phases=3 bus1=m1026795.1.2.3 bus2=l3254217.1.2.3 rmatrix=[0.2237652832945847 | 0.02114118368923633 0.2227428938877141 | 0.02182060224228181 0.02129282591526574 0.2240830987175579] xmatrix=[0.1394450943849665 | 0.06355621649971135 0.1404717575638613 | 0.06030584594663832 0.06626115115036861 0.139129437549161]
new Reactor.kr_58_701 phases=3 bus1=l3030199.1.2.3 bus2=l2730163.1.2.3 rmatrix=[0.02502295118120568 | 0.01018927743378515 0.02452391743812207 | 0.01052168858278361 0.01026304361047244 0.02517854591795123] xmatrix=[0.06449665934952657 | 0.03090673049946512 0.06567867891982426 | 0.0285678052179071 0.03245887834908621 0.06413033058763014]
new Reactor.kr_58_1534 phases=3 bus1=l3030199.1.2.3 bus2=l2955074.1.2.3 rmatrix=[0.02407476767110801 | 0.009803179702932017 0.02359464359128802 | 0.01012299494421602 0.009874150690404027 0.02422446652533602] xmatrix=[0.06205271612416798 | 0.02973559551731999 0.06318994595482801 | 0.02748529808917202 0.03122892851878803 0.06170026849417202]
new Reactor.kr_59_60 phases=1 bus1=m1069189.3 bus2=l2860487.3 rmatrix=[0.14212131110278] xmatrix=[0.07801266690107]
new Reactor.kr_59_347 phases=3 bus1=m1069189.1.2.3 bus2=m1069175.1.2.3 rmatrix=[0.1471894561381705 | 0.01247951036094429 0.1465964632441653 | 0.01287297283240687 0.01256735089807992 0.147373365647838] xmatrix=[0.07993152346096163 | 0.03875004481525006 0.08042191779827172 | 0.03692040006086903 0.04035040673687737 0.07978125896603326]
new Reactor.kr_59_364 phases=3 bus1=m1069189.1.2.3 bus2=m1089112.1.2.3 rmatrix=[0.1833032236214855 | 0.01574096962053135 0.1825489674362576 | 0.01624172432188938 0.01585276913904994 0.1835375339848913] xmatrix=[0.09923434265244122 | 0.04801789079440866 0.09985526511990613 | 0.04573492693079111 0.05000685095710213 0.09904410498129454]
new Reactor.kr_61_391 phases=1 bus1=l3102286.2 bus2=l3233413.2 rmatrix=[0.1474655284216706] xmatrix=[0.08323536877487352]
new Reactor.kr_62_63 phases=3 bus1=f739845.1.2.3 bus2=293471.1.2.3 rmatrix=[0.05131003199999999 | 0.004216115519999997 0.05111069279999998 | 0.004348551119999994 0.004245681120000002 0.05137190639999999] xmatrix=[0.02826410399999999 | 0.01318634904 0.02842954944 | 0.01256547144 0.01373029511999999 0.02821341575999998]
new Reactor.kr_62_1607 phases=3 bus1=f739845.1.2.3 bus2=d5686080-1_int.1.2.3 rmatrix=[0.0009999999999999994 | 0 0.0009999999999999994 | 0 0 0.0009999999999999994] xmatrix=[0.0009999999999999996 | -0 0.0009999999999999996 | -0 -0 0.0009999999999999996]
new Reactor.kr_64_540 phases=1 bus1=l3198355.2 bus2=l2711234.2 rmatrix=[0.1941597704544] xmatrix=[0.1065774117935998]
new Reactor.kr_65_66 phases=1 bus1=l2860504.1 bus2=l2860493.1 rmatrix=[0.2338662768749999] xmatrix=[0.1867856591562499]
new Reactor.kr_65_1103 phases=1 bus1=l2860504.1 bus2=m1026713.1 rmatrix=[0.0149228785539] xmatrix=[0.011918690220945]
new Reactor.kr_66_627 phases=1 bus1=l2860493.1 bus2=l3085403.1 rmatrix=[0.0983242249002] xmatrix=[0.07853015579851]
new Reactor.kr_67_760 phases=3 bus1=m1026783.1.2.3 bus2=m1026769.1.2.3 rmatrix=[0.4119051867704118 | 0.0344613269294704 0.4102539118382323 | 0.03555761715064085 0.03470608702451409 0.412418156900113] xmatrix=[0.2259428104855957 | 0.105124418934455 0.227302181439146 | 0.1001263812427852 0.1094788014455936 0.2255263279547708]
new Reactor.kr_67_1061 phases=1 bus1=m1026783.1 bus2=l3197641.1 rmatrix=[0.1648397494648688] xmatrix=[0.131655157680084]
new Reactor.kr_67_1298 phases=1 bus1=m1026783.3 bus2=l2766724.3 rmatrix=[0.07656239717049115] xmatrix=[0.04272637675534841]
new Reactor.kr_68_397 phases=3 bus1=m1026700.1.2.3 bus2=m1026706.1.2.3 rmatrix=[0.1441757190153999 | 0.01206220991261986 0.1435977370549999 | 0.01244593521413993 0.01214788120319985 0.1443552696244001] xmatrix=[0.07908486124013998 | 0.03679581930411016 0.07956067035398996 | 0.03504639787042002 0.03831994747364997 0.07893908324569018]
new Reactor.kr_68_488 phases=3 bus1=m1026700.1.2.3 bus2=l2851933.1.2.3 rmatrix=[0.1640715567176031 | 0.01348166440132677 0.1634341396036765 | 0.01390514717811937 0.01357620486647538 0.1642694094363807] xmatrix=[0.09037873129344424 | 0.04216533740610872 0.09090776802772733 | 0.04017998778318398 0.04390468691067381 0.09021664802732282]
new Reactor.kr_68_761 phases=1 bus1=m1026700.2 bus2=l3189189.2 rmatrix=[0.1063134420099647] xmatrix=[0.0593292314805783]
new Reactor.kr_68_988 phases=3 bus1=m1026700.1.2.3 bus2=l2973167.1.2.3 rmatrix=[0.1617450704180427 | 0.01353211895929067 0.1610966551872639 | 0.01396260528410006 0.01362823021611782 0.1619465011898854] xmatrix=[0.08872219717614195 | 0.04127978288433493 0.08925598872656788 | 0.03931717578908369 0.04298964232965208 0.08855865458982574]
new Reactor.kr_68_1257 phases=1 bus1=m1026700.3 bus2=l3189188.3 rmatrix=[0.04519524316828993] xmatrix=[0.02411926167438807]
new Reactor.kr_69_70 phases=1 bus1=m1089173.3 bus2=l2935551.3 rmatrix=[0.09943044899064001] xmatrix=[0.05457896804315999]
new Reactor.kr_69_474 phases=1 bus1=m1089173.3 bus2=l2879062.3 rmatrix=[0.15124477879928] xmatrix=[0.084080475215096]
new Reactor.kr_69_1427 phases=1 bus1=m1089173.3 bus2=l2804282.3 rmatrix=[1.084590499545517] xmatrix=[0.6010080000805432]
new Reactor.kr_69_1651 phases=1 bus1=m1089173.3 bus2=l2673307.3 rmatrix=[0.1373841398728801] xmatrix=[0.07541235764172]
new Reactor.kr_70_1679 phases=1 bus1=l2935551.3 bus2=d5746546-1_int.3 rmatrix=[0.05234811072093999] xmatrix=[0.02873471749511]
new Reactor.kr_71_75 phases=1 bus1=m1026344.1 bus2=l2991919.1 rmatrix=[0.2106843845028] xmatrix=[0.11610850475463]
new Reactor.kr_71_338 phases=1 bus1=m1026344.1 bus2=l3010570.1 rmatrix=[0.3977503692751044] xmatrix=[0.3176775616554369]
new Reactor.kr_71_827 phases=1 bus1=m1026344.1 bus2=m1026343.1 rmatrix=[0.01535287526967999] xmatrix=[0.008460994370577998]
new Reactor.kr_72_73 phases=3 bus1=l2879070.1.2.3 bus2=l3216345.1.2.3 rmatrix=[0.05901625868732997 | 0.01227877881164099 0.05840267248514096 | 0.01268661583469399 0.01236977638696201 0.05920709462301297] xmatrix=[0.07768701438447297 | 0.03470043848936098 0.07845330505555194 | 0.03269438399278497 0.03625195161362701 0.07745063501069994]
new Reactor.kr_72_768 phases=3 bus1=l2879070.1.2.3 bus2=m1026830.1.2.3 rmatrix=[0.0346793977719 | 0.007215310899629991 0.03431883950462999 | 0.007454965914419986 0.007268783301659988 0.03479153763758999] xmatrix=[0.04565079070539002 | 0.02039082679923001 0.04610108185536 | 0.01921202008755001 0.02130253387761001 0.04551188840099998]
new Reactor.kr_73_603 phases=3 bus1=l3216345.1.2.3 bus2=m3768670.1.2.3 rmatrix=[0.05009708909771998 | 0.01042307814524397 0.04957623461924394 | 0.01076927846589597 0.01050032319160798 0.05025908386129193] xmatrix=[0.06594612006793202 | 0.02945613628172397 0.06659660067916795 | 0.02775325824293999 0.03077316811246799 0.06574546487879994]
new Reactor.kr_74_541 phases=1 bus1=m1069428.2 bus2=l2973178.2 rmatrix=[0.09289918581423312] xmatrix=[0.07419725472959321]
new Reactor.kr_74_720 phases=1 bus1=m1069428.2 bus2=l3029518.2 rmatrix=[0.0451376123723131] xmatrix=[0.03505082751325049]
new Reactor.kr_74_911 phases=3 bus1=m1069428.1.2.3 bus2=q14411.1.2.3 rmatrix=[0.02997586372095001 | 0.006236705079314995 0.02966420763181498 | 0.006443855910210006 0.006282925069830005 0.030072794162295] xmatrix=[0.03945921696619501 | 0.017625238169115 0.03984843555167999 | 0.016606311901275 0.018413291275305 0.03933915385049998]
new Reactor.kr_75_76 phases=1 bus1=l2991919.1 bus2=m1026361.1 rmatrix=[0.13913035346964] xmatrix=[0.07667496262461898]
new Reactor.kr_76_441 phases=1 bus1=m1026361.1 bus2=l3122825.1 rmatrix=[0.01906012323813] xmatrix=[0.014800807045524]
new Reactor.kr_76_986 phases=1 bus1=m1026361.1 bus2=m1026366.1 rmatrix=[0.11412862508788] xmatrix=[0.062896469711923]
new Reactor.kr_77_78 phases=3 bus1=q14412.1.2.3 bus2=m1047325.1.2.3 rmatrix=[0.05714298269879996 | 0.004695405690168008 0.05692098251651999 | 0.004842896636958024 0.004728332322708018 0.05721189101225996] xmatrix=[0.03147718180859997 | 0.014685379947786 0.03166143517089601 | 0.01399392066444601 0.01529116209655801 0.03142073130353399]
new Reactor.kr_77_861 phases=3 bus1=q14412.1.2.3 bus2=d5926308-3_int.1.2.3 rmatrix=[0.0009999999999999994 | 0 0.0009999999999999994 | 0 0 0.0009999999999999994] xmatrix=[0.0009999999999999996 | -0 0.0009999999999999996 | -0 -0 0.0009999999999999996]
new Reactor.kr_78_205 phases=1 bus1=m1047325.1 bus2=m1047326.1 rmatrix=[0.01899326761537178] xmatrix=[0.01516965190182877]
new Reactor.kr_78_468 phases=3 bus1=m1047325.1.2.3 bus2=l2897780.1.2.3 rmatrix=[0.1716021066987346 | 0.01433369622840085 0.1709160909946192 | 0.01478917380225944 0.01443538640432124 0.1718152028728666] xmatrix=[0.0941649295966112 | 0.04382294259391866 0.09473007987090086 | 0.04174124768218843 0.04563746530471691 0.0939917795809689]
new Reactor.kr_79_80 phases=1 bus1=l3048227.1 bus2=m1069469.1 rmatrix=[0.057370910869569] xmatrix=[0.03201638452958769]
new Reactor.kr_80_1677 phases=1 bus1=m1069469.1 bus2=l3010561.1 rmatrix=[0.2082153199908444] xmatrix=[0.166298610707982]
new Reactor.kr_81_838 phases=1 bus1=l2785522.2 bus2=l2860506.2 rmatrix=[0.3487166690003092] xmatrix=[0.2785150565117002]
new Reactor.kr_82_83 phases=1 bus1=l3216338.2 bus2=l2973146.2 rmatrix=[0.0657456089328] xmatrix=[0.05251007997064001]
new Reactor.kr_82_551 phases=1 bus1=l3216338.2 bus2=m1009840.2 rmatrix=[0.15592953353094] xmatrix=[0.08701796475503995]
new Reactor.kr_84_85 phases=1 bus1=m3037452.1 bus2=l2973164.1 rmatrix=[0.11965744794276] xmatrix=[0.06677598112415999]
new Reactor.kr_84_511 phases=1 bus1=m3037452.1 bus2=l2897778.1 rmatrix=[0.00323779281384] xmatrix=[0.001784352851814]
new Reactor.kr_84_1145 phases=1 bus1=m3037452.1 bus2=m1026387.1 rmatrix=[0.194263076893] xmatrix=[0.1066341183545]
new Reactor.kr_86_87 phases=1 bus1=l3120376.1 bus2=m1026925.1 rmatrix=[0.14983122948204] xmatrix=[0.08329465041322798]
new Reactor.kr_86_455 phases=1 bus1=l3120376.1 bus2=m1026906.1 rmatrix=[0.1791814495971] xmatrix=[0.09961111749746998]
new Reactor.kr_87_259 phases=1 bus1=m1026925.1 bus2=l2916599.1 rmatrix=[0.02608543359630001] xmatrix=[0.0145572252408]
new Reactor.kr_87_694 phases=1 bus1=m1026925.1 bus2=l3235249.1 rmatrix=[0.1850221682599] xmatrix=[0.10285810826743]
new Reactor.kr_89_499 phases=1 bus1=m1026940.2 bus2=m1026948.2 rmatrix=[0.5293764898982383] xmatrix=[0.2954236428187708]
new Reactor.kr_89_1143 phases=1 bus1=m1026940.2 bus2=l2935556.2 rmatrix=[0.2315581594557672] xmatrix=[0.1849422041750206]
new Reactor.kr_89_1447 phases=1 bus1=m1026940.2 bus2=l3104124.2 rmatrix=[0.1513711955478514] xmatrix=[0.08447414136864016]
new Reactor.kr_90_91 phases=1 bus1=m1047471.2 bus2=l3216349.2 rmatrix=[0.02064998331] xmatrix=[0.0164928470905]
new Reactor.kr_90_840 phases=1 bus1=m1047471.2 bus2=l2879077.2 rmatrix=[0.1071568358856] xmatrix=[0.08558463619228]
new Reactor.kr_90_1084 phases=1 bus1=m1047471.2 bus2=l3160104.2 rmatrix=[0.125223001776] xmatrix=[0.1000138251688]
new Reactor.kr_90_1656 phases=1 bus1=m1047471.2 bus2=l2973180.2 rmatrix=[0.08547531073199999] xmatrix=[0.06826791134659999]
new Reactor.kr_92_93 phases=1 bus1=m1047401.1 bus2=l2748132.1 rmatrix=[0.09387513283043999] xmatrix=[0.05238791404704]
new Reactor.kr_92_574 phases=1 bus1=m1047401.1 bus2=l3254216.1 rmatrix=[0.05614144083678001] xmatrix=[0.03133026700848]
new Reactor.kr_92_1157 phases=1 bus1=m1047401.1 bus2=l3091052.1 rmatrix=[0.196351242939206] xmatrix=[0.1568229406791815]
new Reactor.kr_94_95 phases=1 bus1=l3122820.1 bus2=l3141398.1 rmatrix=[0.06667441206749998] xmatrix=[0.05325190178462498]
new Reactor.kr_94_412 phases=1 bus1=l3122820.1 bus2=l2879074.1 rmatrix=[0.0831141744669] xmatrix=[0.06638210549409498]
new Reactor.kr_96_991 phases=1 bus1=l3048968.3 bus2=m1108350.3 rmatrix=[0.4902775669859205] xmatrix=[0.273604093425958]
new Reactor.kr_97_533 phases=1 bus1=m1069224.3 bus2=m1069218.3 rmatrix=[0.2003375494614001] xmatrix=[0.1118002819824]
new Reactor.kr_97_837 phases=1 bus1=m1069224.3 bus2=m1069226.3 rmatrix=[0.2009380843755998] xmatrix=[0.11073730300501]
new Reactor.kr_97_1449 phases=1 bus1=m1069224.3 bus2=l3235266.3 rmatrix=[0.1850730104993161] xmatrix=[0.100472350989285]
new Reactor.kr_98_99 phases=1 bus1=l2766746.3 bus2=m1027073.3 rmatrix=[0.1239911989650001] xmatrix=[0.09903000183575003]
new Reactor.kr_98_1600 phases=1 bus1=l2766746.3 bus2=l2710515.3 rmatrix=[0.3637023433941329] xmatrix=[0.2346182866409752]
new Reactor.kr_99_915 phases=1 bus1=m1027073.3 bus2=m1027071.3 rmatrix=[0.1075457745621] xmatrix=[0.08589527596485501]
new Reactor.kr_99_1012 phases=1 bus1=m1027073.3 bus2=l2879089.3 rmatrix=[0.05194239409619999] xmatrix=[0.04148564918830999]
new Reactor.kr_99_1330 phases=1 bus1=m1027073.3 bus2=l3104118.3 rmatrix=[0.0916801673751] xmatrix=[0.07322364183300495]
new Reactor.kr_100_101 phases=1 bus1=m1069181.1 bus2=l2973151.1 rmatrix=[0.12632403160104] xmatrix=[0.07049633177663996]
new Reactor.kr_100_457 phases=1 bus1=m1069181.1 bus2=l3195315.1 rmatrix=[0.1409605951689] xmatrix=[0.07866440580239999]
new Reactor.kr_100_481 phases=1 bus1=m1069181.1 bus2=l2804253.1 rmatrix=[0.02063147433840001] xmatrix=[0.01647806423892]
new Reactor.kr_100_1553 phases=1 bus1=m1069181.1 bus2=l2748146.1 rmatrix=[0.1661790891017399] xmatrix=[0.09273782708783997]
new Reactor.kr_101_1515 phases=1 bus1=l2973151.1 bus2=m1069187.1 rmatrix=[0.1285522102722] xmatrix=[0.0717397881552]
new Reactor.kr_102_103 phases=1 bus1=l3179682.3 bus2=l2786274.3 rmatrix=[0.04643664211601999] xmatrix=[0.02591441143631999]
new Reactor.kr_102_140 phases=1 bus1=l3179682.3 bus2=m1108315.3 rmatrix=[0.08607022909248845] xmatrix=[0.04803231311127031]
new Reactor.kr_104_773 phases=1 bus1=l3066816.1 bus2=l2879081.1 rmatrix=[0.1662605828705536] xmatrix=[0.1327899577076469]
new Reactor.kr_104_1113 phases=1 bus1=l3066816.1 bus2=l3066817.1 rmatrix=[0.4028034146775968] xmatrix=[0.2738256219594881]
new Reactor.kr_105_106 phases=3 bus1=m1108529.1.2.3 bus2=m1108532.1.2.3 rmatrix=[0.006698881389593987 | 0.002727766222625992 0.006565285323083994 | 0.002816755840187994 0.002747514127721997 0.006740535576347999] xmatrix=[0.01726636746392398 | 0.008274024910259983 0.01758280531505398 | 0.007647872426945989 0.008689549611833993 0.01716829777944599]
new Reactor.kr_105_288 phases=1 bus1=m1108529.3 bus2=m1108540.3 rmatrix=[0.4935479922211362] xmatrix=[0.2754291990558772]
new Reactor.kr_105_1019 phases=3 bus1=m1108529.1.2.3 bus2=q14734.1.2.3 rmatrix=[0.01498131890677802 | 0.006100352179362004 0.014682545848908 | 0.00629936777055601 0.006144516219114003 0.01507447396047601] xmatrix=[0.03861435100798803 | 0.01850395590162001 0.03932202981079802 | 0.01710363404320201 0.01943323165765802 0.03839502883570202]
new Reactor.kr_106_612 phases=3 bus1=m1108532.1.2.3 bus2=m1108534.1.2.3 rmatrix=[0.1073320984307469 | 0.04370533713629255 0.1051915699468037 | 0.04513116364173746 0.04402174582744683 0.1079994981528699] xmatrix=[0.2766485032397483 | 0.1325696676253335 0.2817185942993913 | 0.1225372073888027 0.1392273671713425 0.2750771924019191]
new Reactor.kr_106_962 phases=1 bus1=m1108532.2 bus2=l2936213.2 rmatrix=[0.05980511036291086] xmatrix=[0.04562617442148902]
new Reactor.kr_107_108 phases=1 bus1=l2766723.1 bus2=l3122822.1 rmatrix=[0.09572045575638002] xmatrix=[0.05341771412208001]
new Reactor.kr_107_956 phases=1 bus1=l2766723.1 bus2=l2822868.1 rmatrix=[0.06602409421020002] xmatrix=[0.05273250218901]
...
